Version 4
SHEET 1 880 680
WIRE 224 64 32 64
WIRE 464 64 304 64
WIRE 32 112 32 64
WIRE 464 128 464 64
WIRE 32 272 32 192
WIRE 256 272 32 272
WIRE 464 272 464 192
WIRE 464 272 256 272
FLAG 256 272 0
SYMBOL voltage 32 96 R0
WINDOW 3 -194 107 Left 2
WINDOW 123 0 0 Left 0
WINDOW 39 0 0 Left 0
SYMATTR InstName V1
SYMATTR Value PULSE(-10 7 0 1u 1u 0.0013 0.0026)
SYMBOL res 320 48 R90
WINDOW 0 0 56 VBottom 2
WINDOW 3 32 56 VTop 2
SYMATTR InstName R1
SYMATTR Value 90
SYMBOL cap 448 128 R0
SYMATTR InstName C1
SYMATTR Value 2.84µ
TEXT -164 296 Left 2 !.tran 0.0026
