Version 4
SHEET 1 880 680
WIRE 192 -432 -16 -432
WIRE 400 -432 192 -432
WIRE -16 -368 -16 -432
WIRE 400 -368 400 -432
WIRE 192 -320 192 -432
WIRE -16 -256 -16 -288
WIRE 400 -256 400 -288
WIRE -16 -128 -16 -176
WIRE 192 -128 192 -240
WIRE 192 -128 -16 -128
WIRE 400 -128 400 -192
WIRE 400 -128 192 -128
FLAG 192 -128 0
SYMBOL voltage -16 -272 M0
WINDOW 123 0 0 Left 0
WINDOW 39 0 0 Left 0
SYMATTR InstName V1
SYMATTR Value SINE(0 219 392781)
SYMBOL res -32 -384 R0
SYMATTR InstName R1
SYMATTR Value 869
SYMBOL ind 176 -336 R0
SYMATTR InstName L1
SYMATTR Value 32.518m
SYMATTR SpiceLine Rser=31
SYMBOL res 384 -384 R0
SYMATTR InstName R2
SYMATTR Value 19
SYMBOL cap 384 -256 R0
SYMATTR InstName C1
SYMATTR Value 1.013µ
TEXT -152 -128 Left 2 !.tran 0.0001
